<?xml version="1.0" encoding="UTF-8"?>

<edges xmlns:xsi="http://www.w3.org/2001/XMLSchema-instance" xsi:noNamespaceSchemaLocation="http://sumo.dlr.de/xsd/edges_file.xsd">
    <edge id="D1" from="1" to="5" type="a" />
    <edge id="D2" from="5" to="2" type="a" />

    <edge id="D3" from="2" to="5" type="a" />
    <edge id="D4" from="5" to="1" type="a" />

    <edge id="D5" from="3" to="5" type="a" />
    <edge id="D6" from="5" to="4" type="a" />

    <edge id="D7" from="4" to="5" type="a" />
    <edge id="D8" from="5" to="3" type="a" />
</edges>

<!-- D1 = direction Sud Nord (node 1->2)
     D2 = direction Nord Sud (node 2->1)
     D3 = direction Ovest Est (node 3->4)
     D4 = direction Est Ovest (node 4->3)
 -->