<types>
    <type id="a" priority="1" numLanes="1" speed="13.89" />
    <type id="b" priority="1" numLanes="1" speed="25" />
</types>